/*--------------------------------*- C++ -*----------------------------------*\
| =========                 |                                                 |
| \\      /  F ield         | OpenFOAM: The Open Source CFD Toolbox           |
|  \\    /   O peration     | Version:  2506                                  |
|   \\  /    A nd           | Website:  www.openfoam.com                      |
|    \\/     M anipulation  |                                                 |
\*---------------------------------------------------------------------------*/
FoamFile
{
    version     2.0;
    format      ascii;
    arch        "LSB;label=32;scalar=64";
    class       polyBoundaryMesh;
    location    "constant/polyMesh";
    object      boundary;
}
// * * * * * * * * * * * * * * * * * * * * * * * * * * * * * * * * * * * * * //

14
(
    minX
    {
        type            patch;
        nFaces          0;
        startFace       35989;
    }
    maxX
    {
        type            patch;
        nFaces          0;
        startFace       35989;
    }
    minY
    {
        type            patch;
        nFaces          0;
        startFace       35989;
    }
    maxY
    {
        type            patch;
        nFaces          0;
        startFace       35989;
    }
    minZ
    {
        type            empty;
        inGroups        1(empty);
        nFaces          17947;
        startFace       35989;
    }
    maxZ
    {
        type            empty;
        inGroups        1(empty);
        nFaces          17947;
        startFace       53936;
    }
    stlSurface
    {
        type            wall;
        inGroups        1(wall);
        nFaces          0;
        startFace       71883;
    }
    procBoundary6to0
    {
        type            processor;
        inGroups        1(processor);
        nFaces          14;
        startFace       71883;
        matchTolerance  0.0001;
        transform       unknown;
        myProcNo        6;
        neighbProcNo    0;
    }
    procBoundary6to1
    {
        type            processor;
        inGroups        1(processor);
        nFaces          48;
        startFace       71897;
        matchTolerance  0.0001;
        transform       unknown;
        myProcNo        6;
        neighbProcNo    1;
    }
    procBoundary6to2
    {
        type            processor;
        inGroups        1(processor);
        nFaces          10;
        startFace       71945;
        matchTolerance  0.0001;
        transform       unknown;
        myProcNo        6;
        neighbProcNo    2;
    }
    procBoundary6to3
    {
        type            processor;
        inGroups        1(processor);
        nFaces          2;
        startFace       71955;
        matchTolerance  0.0001;
        transform       unknown;
        myProcNo        6;
        neighbProcNo    3;
    }
    procBoundary6to4
    {
        type            processor;
        inGroups        1(processor);
        nFaces          17;
        startFace       71957;
        matchTolerance  0.0001;
        transform       unknown;
        myProcNo        6;
        neighbProcNo    4;
    }
    procBoundary6to5
    {
        type            processor;
        inGroups        1(processor);
        nFaces          11;
        startFace       71974;
        matchTolerance  0.0001;
        transform       unknown;
        myProcNo        6;
        neighbProcNo    5;
    }
    procBoundary6to7
    {
        type            processor;
        inGroups        1(processor);
        nFaces          185;
        startFace       71985;
        matchTolerance  0.0001;
        transform       unknown;
        myProcNo        6;
        neighbProcNo    7;
    }
)

// ************************************************************************* //
