/*--------------------------------*- C++ -*----------------------------------*\
| =========                 |                                                 |
| \\      /  F ield         | OpenFOAM: The Open Source CFD Toolbox           |
|  \\    /   O peration     | Version:  2506                                  |
|   \\  /    A nd           | Website:  www.openfoam.com                      |
|    \\/     M anipulation  |                                                 |
\*---------------------------------------------------------------------------*/
FoamFile
{
    version     2.0;
    format      ascii;
    arch        "LSB;label=32;scalar=64";
    class       polyBoundaryMesh;
    location    "constant/polyMesh";
    object      boundary;
}
// * * * * * * * * * * * * * * * * * * * * * * * * * * * * * * * * * * * * * //

10
(
    minX
    {
        type            patch;
        nFaces          0;
        startFace       51597;
    }
    maxX
    {
        type            patch;
        nFaces          0;
        startFace       51597;
    }
    minY
    {
        type            patch;
        nFaces          0;
        startFace       51597;
    }
    maxY
    {
        type            patch;
        nFaces          0;
        startFace       51597;
    }
    minZ
    {
        type            empty;
        inGroups        1(empty);
        nFaces          1262;
        startFace       51597;
    }
    maxZ
    {
        type            empty;
        inGroups        1(empty);
        nFaces          1242;
        startFace       52859;
    }
    stlSurface
    {
        type            wall;
        inGroups        1(wall);
        nFaces          2264;
        startFace       54101;
    }
    procBoundary0to1
    {
        type            processor;
        inGroups        1(processor);
        nFaces          179;
        startFace       56365;
        matchTolerance  0.0001;
        transform       unknown;
        myProcNo        0;
        neighbProcNo    1;
    }
    procBoundary0to5
    {
        type            processor;
        inGroups        1(processor);
        nFaces          167;
        startFace       56544;
        matchTolerance  0.0001;
        transform       unknown;
        myProcNo        0;
        neighbProcNo    5;
    }
    procBoundary0to6
    {
        type            processor;
        inGroups        1(processor);
        nFaces          14;
        startFace       56711;
        matchTolerance  0.0001;
        transform       unknown;
        myProcNo        0;
        neighbProcNo    6;
    }
)

// ************************************************************************* //
