/*--------------------------------*- C++ -*----------------------------------*\
  =========                 |
  \\      /  F ield         | OpenFOAM: The Open Source CFD Toolbox
   \\    /   O peration     | Website:  https://openfoam.org
    \\  /    A nd           | Version:  13
     \\/     M anipulation  |
\*---------------------------------------------------------------------------*/
FoamFile
{
    format      ascii;
    class       polyBoundaryMesh;
    location    "constant/polyMesh";
    object      boundary;
}
// * * * * * * * * * * * * * * * * * * * * * * * * * * * * * * * * * * * * * //

7
(
    minX
    {
        type            patch;
        nFaces          80;
        startFace       230628;
    }
    maxX
    {
        type            patch;
        nFaces          80;
        startFace       230708;
    }
    minY
    {
        type            patch;
        nFaces          120;
        startFace       230788;
    }
    maxY
    {
        type            patch;
        nFaces          120;
        startFace       230908;
    }
    minZ
    {
        type            empty;
        nFaces          27760;
        startFace       231028;
    }
    maxZ
    {
        type            empty;
        nFaces          27760;
        startFace       258788;
    }
    stlSurface
    {
        type            wall;
        nFaces          8384;
        startFace       286548;
    }
)

// ************************************************************************* //
