/*--------------------------------*- C++ -*----------------------------------*\
| =========                 |                                                 |
| \\      /  F ield         | OpenFOAM: The Open Source CFD Toolbox           |
|  \\    /   O peration     | Version:  2506                                  |
|   \\  /    A nd           | Website:  www.openfoam.com                      |
|    \\/     M anipulation  |                                                 |
\*---------------------------------------------------------------------------*/
FoamFile
{
    version     2.0;
    format      ascii;
    arch        "LSB;label=32;scalar=64";
    class       polyBoundaryMesh;
    location    "constant/polyMesh";
    object      boundary;
}
// * * * * * * * * * * * * * * * * * * * * * * * * * * * * * * * * * * * * * //

11
(
    minX
    {
        type            patch;
        nFaces          0;
        startFace       49522;
    }
    maxX
    {
        type            patch;
        nFaces          50;
        startFace       49522;
    }
    minY
    {
        type            patch;
        nFaces          0;
        startFace       49572;
    }
    maxY
    {
        type            patch;
        nFaces          51;
        startFace       49572;
    }
    minZ
    {
        type            empty;
        inGroups        1(empty);
        nFaces          3232;
        startFace       49623;
    }
    maxZ
    {
        type            empty;
        inGroups        1(empty);
        nFaces          3232;
        startFace       52855;
    }
    stlSurface
    {
        type            wall;
        inGroups        1(wall);
        nFaces          2080;
        startFace       56087;
    }
    procBoundary4to2
    {
        type            processor;
        inGroups        1(processor);
        nFaces          24;
        startFace       58167;
        matchTolerance  0.0001;
        transform       unknown;
        myProcNo        4;
        neighbProcNo    2;
    }
    procBoundary4to5
    {
        type            processor;
        inGroups        1(processor);
        nFaces          129;
        startFace       58191;
        matchTolerance  0.0001;
        transform       unknown;
        myProcNo        4;
        neighbProcNo    5;
    }
    procBoundary4to6
    {
        type            processor;
        inGroups        1(processor);
        nFaces          17;
        startFace       58320;
        matchTolerance  0.0001;
        transform       unknown;
        myProcNo        4;
        neighbProcNo    6;
    }
    procBoundary4to7
    {
        type            processor;
        inGroups        1(processor);
        nFaces          101;
        startFace       58337;
        matchTolerance  0.0001;
        transform       unknown;
        myProcNo        4;
        neighbProcNo    7;
    }
)

// ************************************************************************* //
