/*--------------------------------*- C++ -*----------------------------------*\
| =========                 |                                                 |
| \\      /  F ield         | OpenFOAM: The Open Source CFD Toolbox           |
|  \\    /   O peration     | Version:  2506                                  |
|   \\  /    A nd           | Website:  www.openfoam.com                      |
|    \\/     M anipulation  |                                                 |
\*---------------------------------------------------------------------------*/
FoamFile
{
    version     2.0;
    format      ascii;
    arch        "LSB;label=32;scalar=64";
    class       polyBoundaryMesh;
    location    "constant/polyMesh";
    object      boundary;
}
// * * * * * * * * * * * * * * * * * * * * * * * * * * * * * * * * * * * * * //

10
(
    minX
    {
        type            patch;
        nFaces          0;
        startFace       52286;
    }
    maxX
    {
        type            patch;
        nFaces          0;
        startFace       52286;
    }
    minY
    {
        type            patch;
        nFaces          0;
        startFace       52286;
    }
    maxY
    {
        type            patch;
        nFaces          0;
        startFace       52286;
    }
    minZ
    {
        type            empty;
        inGroups        1(empty);
        nFaces          1253;
        startFace       52286;
    }
    maxZ
    {
        type            empty;
        inGroups        1(empty);
        nFaces          1253;
        startFace       53539;
    }
    stlSurface
    {
        type            wall;
        inGroups        1(wall);
        nFaces          2368;
        startFace       54792;
    }
    procBoundary3to1
    {
        type            processor;
        inGroups        1(processor);
        nFaces          173;
        startFace       57160;
        matchTolerance  0.0001;
        transform       unknown;
        myProcNo        3;
        neighbProcNo    1;
    }
    procBoundary3to2
    {
        type            processor;
        inGroups        1(processor);
        nFaces          162;
        startFace       57333;
        matchTolerance  0.0001;
        transform       unknown;
        myProcNo        3;
        neighbProcNo    2;
    }
    procBoundary3to6
    {
        type            processor;
        inGroups        1(processor);
        nFaces          2;
        startFace       57495;
        matchTolerance  0.0001;
        transform       unknown;
        myProcNo        3;
        neighbProcNo    6;
    }
)

// ************************************************************************* //
