/*--------------------------------*- C++ -*----------------------------------*\
| =========                 |                                                 |
| \\      /  F ield         | OpenFOAM: The Open Source CFD Toolbox           |
|  \\    /   O peration     | Version:  2506                                  |
|   \\  /    A nd           | Website:  www.openfoam.com                      |
|    \\/     M anipulation  |                                                 |
\*---------------------------------------------------------------------------*/
FoamFile
{
    version     2.0;
    format      ascii;
    arch        "LSB;label=32;scalar=64";
    class       polyBoundaryMesh;
    location    "constant/polyMesh";
    object      boundary;
}
// * * * * * * * * * * * * * * * * * * * * * * * * * * * * * * * * * * * * * //

10
(
    minX
    {
        type            patch;
        nFaces          0;
        startFace       51906;
    }
    maxX
    {
        type            patch;
        nFaces          0;
        startFace       51906;
    }
    minY
    {
        type            patch;
        nFaces          0;
        startFace       51906;
    }
    maxY
    {
        type            patch;
        nFaces          0;
        startFace       51906;
    }
    minZ
    {
        type            empty;
        inGroups        1(empty);
        nFaces          1243;
        startFace       51906;
    }
    maxZ
    {
        type            empty;
        inGroups        1(empty);
        nFaces          1243;
        startFace       53149;
    }
    stlSurface
    {
        type            wall;
        inGroups        1(wall);
        nFaces          2400;
        startFace       54392;
    }
    procBoundary5to0
    {
        type            processor;
        inGroups        1(processor);
        nFaces          167;
        startFace       56792;
        matchTolerance  0.0001;
        transform       unknown;
        myProcNo        5;
        neighbProcNo    0;
    }
    procBoundary5to4
    {
        type            processor;
        inGroups        1(processor);
        nFaces          129;
        startFace       56959;
        matchTolerance  0.0001;
        transform       unknown;
        myProcNo        5;
        neighbProcNo    4;
    }
    procBoundary5to6
    {
        type            processor;
        inGroups        1(processor);
        nFaces          11;
        startFace       57088;
        matchTolerance  0.0001;
        transform       unknown;
        myProcNo        5;
        neighbProcNo    6;
    }
)

// ************************************************************************* //
