/*--------------------------------*- C++ -*----------------------------------*\
| =========                 |                                                 |
| \\      /  F ield         | OpenFOAM: The Open Source CFD Toolbox           |
|  \\    /   O peration     | Version:  2506                                  |
|   \\  /    A nd           | Website:  www.openfoam.com                      |
|    \\/     M anipulation  |                                                 |
\*---------------------------------------------------------------------------*/
FoamFile
{
    version     2.0;
    format      ascii;
    arch        "LSB;label=32;scalar=64";
    class       polyBoundaryMesh;
    location    "constant/polyMesh";
    object      boundary;
}
// * * * * * * * * * * * * * * * * * * * * * * * * * * * * * * * * * * * * * //

9
(
    minX
    {
        type            patch;
        nFaces          133;
        startFace       35223;
    }
    maxX
    {
        type            patch;
        nFaces          83;
        startFace       35356;
    }
    minY
    {
        type            patch;
        nFaces          150;
        startFace       35439;
    }
    maxY
    {
        type            patch;
        nFaces          99;
        startFace       35589;
    }
    minZ
    {
        type            empty;
        inGroups        1(empty);
        nFaces          17770;
        startFace       35688;
    }
    maxZ
    {
        type            empty;
        inGroups        1(empty);
        nFaces          17770;
        startFace       53458;
    }
    stlSurface
    {
        type            wall;
        inGroups        1(wall);
        nFaces          0;
        startFace       71228;
    }
    procBoundary7to4
    {
        type            processor;
        inGroups        1(processor);
        nFaces          101;
        startFace       71228;
        matchTolerance  0.0001;
        transform       unknown;
        myProcNo        7;
        neighbProcNo    4;
    }
    procBoundary7to6
    {
        type            processor;
        inGroups        1(processor);
        nFaces          185;
        startFace       71329;
        matchTolerance  0.0001;
        transform       unknown;
        myProcNo        7;
        neighbProcNo    6;
    }
)

// ************************************************************************* //
